Version 4
SHEET 1 2604 1992
WIRE 224 -112 64 -112
WIRE 576 -112 224 -112
WIRE 608 -112 576 -112
WIRE 720 -112 672 -112
WIRE 576 16 576 -112
WIRE 224 32 224 -112
WIRE 448 32 320 32
WIRE 64 48 64 -112
WIRE 64 144 64 112
WIRE 64 224 64 208
WIRE 272 224 272 96
WIRE 272 224 64 224
WIRE 288 224 272 224
WIRE 576 224 576 96
WIRE 576 224 368 224
WIRE 672 224 576 224
WIRE 64 256 64 224
WIRE 272 272 272 224
WIRE 448 272 448 32
WIRE 448 272 400 272
WIRE 480 272 448 272
WIRE 576 272 576 224
WIRE 448 352 400 352
WIRE 480 352 480 336
WIRE 480 352 448 352
WIRE 64 384 64 336
WIRE 272 384 272 336
WIRE 272 384 64 384
WIRE 448 384 448 352
WIRE 448 384 272 384
WIRE 576 384 576 336
WIRE 576 384 448 384
FLAG 752 224 0
FLAG 272 384 0
SYMBOL npn 224 96 R270
SYMATTR InstName Q1
SYMATTR Value 2N5210
SYMBOL Misc\\xtal 48 48 R0
SYMATTR InstName C1
SYMATTR Value 33p
SYMATTR SpiceLine V=10 Irms=0 Rser=0.278413 Lser=573.323p mfg="Würth Elektronik" pn="885012007003 WCAP-CSGP 0805" type="NP0"
SYMBOL cap 48 144 R0
SYMATTR InstName C2
SYMATTR Value 15µ
SYMATTR SpiceLine V=15 Irms=11.5 Rser=0.00311943 Lser=0
SYMBOL res 560 0 R0
SYMATTR InstName R1
SYMATTR Value .5k
SYMBOL res 384 208 R90
WINDOW 0 0 56 VBottom 2
WINDOW 3 32 56 VTop 2
SYMATTR InstName R2
SYMATTR Value 15k
SYMBOL res 384 256 R0
SYMATTR InstName R3
SYMATTR Value 680
SYMBOL cap 464 272 R0
SYMATTR InstName C3
SYMATTR Value .075µ
SYMBOL cap 560 272 R0
SYMATTR InstName C4
SYMATTR Value .075µ
SYMBOL cap 256 272 R0
SYMATTR InstName C5
SYMATTR Value .075µ
SYMBOL res 48 240 R0
SYMATTR InstName R4
SYMATTR Value 15k
SYMBOL cap 672 -128 R90
WINDOW 0 0 32 VBottom 2
WINDOW 3 32 32 VTop 2
SYMATTR InstName C6
SYMATTR Value .001µ
SYMBOL voltage 656 224 R270
WINDOW 0 32 56 VTop 2
WINDOW 3 -32 56 VBottom 2
WINDOW 123 0 0 Left 2
WINDOW 39 0 0 Left 2
SYMATTR InstName V3
SYMATTR Value 12
TEXT 488 432 Left 2 !.tran 0 .1 0 1n
